examples/national_grid/data/ireland/models/s04.raw
<!DOCTYPE HTML PUBLIC "-//W3C//DTD HTML 4.0 Transitional//EN">
<!-- saved from url=(0069)http://www.eirgrid.com/EirgridPortal/uploads/Publications/s04_web.raw -->
<HTML><HEAD>
<META http-equiv=Content-Type content="text/html; charset=windows-1252">
<META content="MSHTML 6.00.2900.3492" name=GENERATOR></HEAD>
<BODY><PRE>0,   100.00          / PSS/E-29.4    THU, JUL 22 2004  14:19
ESB NATIONAL GRID FORECAST STATEMENT 2004-2010
BASECASE SUMMER 2004
   10,'F_M_____',  38.0000,1,     0.000,     0.000,   1,   1,1.04094, -12.7842,   2
   11,'FMN_LOOP',  38.0000,1,     0.000,     0.000,   1,   1,1.04815, -10.2957,   2
   12,'BEDFORD ',  38.0000,1,     0.000,     0.000,   1,   1,1.03347, -13.3587,   2
   13,'M_R_____',  38.0000,1,     0.000,     0.000,   1,   1,1.05083, -13.3255,   2
   14,'F_I_____',  38.0000,1,     0.000,     0.000,   1,   1,1.03407, -13.2567,   2
   15,'I_M_____',  38.0000,1,     0.000,     0.000,   1,   1,1.05768, -12.4887,   2
 1021,'ARDNACRU', 110.0000,1,     0.000,     0.000,   7,   1,1.01200, -17.9315,   1
 1041,'AGHADA  ', 110.0000,1,     0.000,     0.000,   3,   1,1.06311, -15.7285,   1
 1042,'AGHADA  ', 220.0000,1,     0.000,     0.000,   3,   1,1.07000, -13.2870,   1
 1061,'ARIGNA  ', 110.0000,1,     0.000,     0.000,   9,   1,1.04170, -17.8182,   2
 1081,'AHANE   ', 110.0000,1,     0.000,     0.000,   7,   1,1.03001, -17.2954,   2
 1101,'ANNER   ', 110.0000,1,     0.000,     0.000,   5,   3,1.05047, -19.4417,   5
 1121,'ARKLOW  ', 110.0000,1,     0.000,     0.000,   6,   1,1.06007,  -9.3217,   1
 1122,'ARKLOW  ', 220.0000,1,     0.000,     0.000,   6,   1,1.05524,  -7.5927,   1
 1141,'ATHLONE ', 110.0000,1,     0.000,     0.000,   8,   1,1.06491, -17.1016,   1
 1161,'AUGHINIS', 110.0000,1,     0.000,     0.000,   7,   3,1.02411, -16.1257,   1
 1181,'ARVA    ', 110.0000,1,     0.000,     0.000,  10,   1,1.01518, -16.0787,   1
 1201,'ARTANE  ', 110.0000,1,     0.000,     0.000,   1,   1,1.05244,  -8.5339,   2
 1281,'BALLYLIC', 110.0000,1,     0.000,     0.000,   3,   1,1.04242, -18.7441,   2
 1301,'BALLYBEG', 110.0000,1,     0.000,     0.000,   6,   1,1.05963,  -8.6000,   1
 1321,'BLAKE   ', 110.0000,1,     0.000,     0.000,   8,   1,1.06437,  -6.9125,   2
 1341,'BINBANE ', 110.0000,1,     0.000,     0.000,   9,   1,0.99735, -22.3996,   2
 1361,'BALLYDIN', 110.0000,1,     0.000,     0.000,   5,   1,1.05005, -18.2394,   1
 1381,'BARNAHEL', 110.0000,1,     0.000,     0.000,   3,   1,1.06153, -16.9183,   1
 1401,'BELLACOR', 110.0000,1,     0.000,     0.000,   9,   1,1.05500, -20.1858,   1
 1421,'BLACKROC', 110.0000,1,     0.000,     0.000,   2,   2,1.06295,  -7.6694,   2
 1441,'BANDON  ', 110.0000,1,     0.000,     0.000,   3,   1,1.04778, -18.5724,   1
 1461,'BARRYMOR', 110.0000,1,     0.000,     0.000,   5,   1,1.05718, -18.0871,   2
 1481,'BUTLERST', 110.0000,1,     0.000,     0.000,   5,   1,1.04787, -15.7704,   1
 1501,'BRINNY  ', 110.0000,1,     0.000,     0.000,   3,   1,1.04764, -18.5808,   5
 1511,'BRINNY  ', 110.0000,1,     0.000,     0.000,   3,   1,1.04764, -18.5804,   5
 1581,'CABRA   ', 110.0000,1,     0.000,     0.000,   1,   2,1.05183,  -8.5601,   2
 1601,'CLASHAVO', 110.0000,1,     0.000,     0.000,   3,   1,1.05610, -16.6703,   1
 1602,'CLASHAVO', 220.0000,1,     0.000,     0.000,   3,   1,1.05458, -13.2780,   1
 1621,'COOLROE ', 110.0000,1,     0.000,     0.000,   3,   1,1.05437, -17.2857,   1
 1641,'CASHLA  ', 110.0000,1,     0.000,     0.000,   9,   1,1.05579, -14.5963,   1
 1642,'CASHLA  ', 220.0000,1,     0.000,     0.000,   9,   1,1.05496,  -9.6286,   1
 1661,'CASTLEBA', 110.0000,1,     0.000,     0.000,   9,   1,1.05644, -19.7981,   1
 1681,'CARRIGAD', 110.0000,1,     0.000,     0.000,   3,   1,1.05543, -17.2974,   1
 1701,'CATH_FAL', 110.0000,1,     0.000,     0.000,   9,   1,1.02000, -21.4409,   1
 1721,'CAHIR   ', 110.0000,1,     0.000,     0.000,   5,   1,1.05876, -19.9222,   1
 1741,'CARRICKM', 110.0000,1,     0.000,     0.000,   2,   2,1.06655,  -6.9395,   2
 1742,'CARRICKM', 220.0000,1,     0.000,     0.000,   2,   2,1.07041,  -3.9866,   1
 1761,'CLIFF   ', 110.0000,1,     0.000,     0.000,   9,   1,1.02064, -21.3969,   1
 1781,'CASTLEFA', 110.0000,1,     0.000,     0.000,   7,   3,1.02369, -16.1456,   5
 1791,'CASTLEFA', 110.0000,1,     0.000,     0.000,   7,   3,1.02369, -16.1456,   5
 1801,'COOKSTOW', 110.0000,1,     0.000,     0.000,   1,   2,1.04453,  -8.3023,   2
 1821,'CLOON   ', 110.0000,1,     0.000,     0.000,   9,   1,1.04645, -16.5643,   2
 1841,'CRANE   ', 110.0000,1,     0.000,     0.000,   6,   1,1.03852, -13.5365,   1
 1861,'CARRICK ', 110.0000,1,     0.000,     0.000,   9,   1,1.05238, -16.5631,   1
 1871,'COLLEGE ', 110.0000,1,     0.000,     0.000,   2,   1,1.05186,  -8.7639,   1
 1881,'CHARLEVI', 110.0000,1,     0.000,     0.000,   3,   1,1.02061, -18.2255,   1
 1901,'CARLOW  ', 110.0000,1,     0.000,     0.000,   8,   1,1.04805, -12.0825,   1
 1921,'COW CROS', 110.0000,1,     0.000,     0.000,   3,   1,1.06181, -16.7233,   1
 1931,'CUNGHILL', 110.0000,1,     0.000,     0.000,   9,   1,1.03947, -20.6135,   4
 1941,'CUSHALIN', 110.0000,1,     0.000,     0.000,   8,   1,1.07500,  -5.3311,   1
 1961,'CASTLEVI', 110.0000,1,     0.000,     0.000,   3,   1,1.06444, -16.6816,   1
 1981,'CORRACLA', 110.0000,1,     0.000,     0.000,   9,   1,1.01836, -18.9565,   1
 2001,'CULLENAG', 110.0000,1,     0.000,     0.000,   5,   1,1.05456, -15.6957,   1
 2002,'CULLENAG', 220.0000,1,     0.000,     0.000,   5,   1,1.04017, -13.0510,   1
 2021,'CITY WES', 110.0000,1,     0.000,     0.000,   1,   1,1.06678,  -8.0078,   2
 2081,'DUNKETTL', 110.0000,1,     0.000,     0.000,   3,   1,1.06444, -16.6816,   5
 2101,'DUNDALK ', 110.0000,1,     0.000,     0.000,  10,   1,1.04812, -10.8373,   1
 2121,'DRUMLINE', 110.0000,1,     0.000,     0.000,   7,   1,1.00056, -18.4434,   1
 2141,'DUNGARVA', 110.0000,1,     0.000,     0.000,   5,   1,1.04827, -16.6840,   1
 2161,'DOON    ', 110.0000,1,     0.000,     0.000,   5,   1,1.05105, -19.4085,   1
 2181,'DRYBRIDG', 110.0000,1,     0.000,     0.000,  10,   1,1.01003, -11.9982,   1
 2202,'DUNSTOWN', 220.0000,1,     0.000,     0.000,   2,   1,1.07322,  -4.2253,   1
 2204,'DUNSTOWN', 380.0000,1,     0.000,     0.000,   2,   1,1.03398,  -1.1278,   1
 2221,'DUNMANWA', 110.0000,1,     0.000,     0.000,   3,   1,1.04293, -18.7197,   1
 2241,'DALLOW  ', 110.0000,1,     0.000,     0.000,   5,   1,1.04801, -14.5817,   2
 2281,'DALTON  ', 110.0000,1,     0.000,     0.000,   9,   1,1.05562, -18.9220,   1
 2301,'DUNFIRTH', 110.0000,1,     0.000,     0.000,   2,   1,1.04928,  -8.9733,   2
 2361,'ENNIS   ', 110.0000,1,     0.000,     0.000,   7,   1,1.00636, -17.9753,   1
 2481,'FASS EAS', 110.0000,1,     0.000,     0.000,   2,   2,1.06217,  -7.1495,   2
 2491,'FASS WES', 110.0000,1,     0.000,     0.000,   2,   2,1.06203,  -7.1475,   2
 2521,'FLAGFORD', 110.0000,1,     0.000,     0.000,   9,   1,1.05674, -16.4177,   1
 2522,'FLAGFORD', 220.0000,1,     0.000,     0.000,   9,   1,1.01485, -11.6715,   1
 2541,'FRN ST A', 110.0000,1,     0.000,     0.000,   1,   2,1.06121,  -7.8106,   2
 2551,'FRN ST B', 110.0000,1,     0.000,     0.000,   1,   2,1.06631,  -8.0435,   2
 2561,'FIN_URBA', 110.0000,1,     0.000,     0.000,   2,   2,1.05373,  -8.3922,   1
 2562,'FINGLAS ', 220.0000,1,     0.000,     0.000,   2,   2,1.07299,  -4.0972,   1
 2571,'FIN_RURA', 110.0000,1,     0.000,     0.000,   2,   2,1.05624,  -8.1749,   1
 2681,'GILRA   ', 110.0000,1,     0.000,     0.000,   9,   3,1.05790, -16.7167,   2
 2701,'GLASMORE', 110.0000,1,     0.000,     0.000,   2,   2,1.04462,  -9.1052,   2
 2711,'GLASMORE', 110.0000,1,     0.000,     0.000,   2,   2,1.05636,  -8.1779,   2
 2721,'GRIFFINR', 110.0000,1,     0.000,     0.000,   2,   2,1.06055,  -8.1004,   2
 2731,'GRIFFINR', 110.0000,1,     0.000,     0.000,   2,   1,1.06079,  -8.0839,   2
 2741,'GREAT IS', 110.0000,1,     0.000,     0.000,   6,   1,1.05435, -14.7721,   1
 2742,'GREAT IS', 220.0000,1,     0.000,     0.000,   6,   1,1.03829, -11.8478,   1
 2761,'GRANGE  ', 110.0000,1,     0.000,     0.000,   1,   2,1.05540,  -8.3215,   2
 2781,'GALWAY  ', 110.0000,1,     0.000,     0.000,   9,   1,1.04509, -15.4310,   1
 2801,'GOLAGH  ', 110.0000,1,     0.000,     0.000,   9,   1,1.01141, -22.3785,   1
 2821,'GORTAWEE', 110.0000,1,     0.000,     0.000,   9,   1,1.01889, -18.4900,   1
 2861,'GRANGE C', 110.0000,1,     0.000,     0.000,   1,   1,1.06338,  -8.2893,   2
 2881,'GLENLARA', 110.0000,1,     0.000,     0.000,   3,   1,1.01223, -18.7185,   2
 2921,'HAULBOWL', 110.0000,1,     0.000,     0.000,   3,   3,1.06258, -16.8568,   5
 2931,'HAULBOWL', 110.0000,1,     0.000,     0.000,   3,   3,1.06154, -16.9185,   5
 2941,'HAROLDS ', 110.0000,1,     0.000,     0.000,   1,   2,1.06213,  -7.7472,   2
 2962,'HUNTSTOW', 220.0000,1,     0.000,     0.000,   2,   1,1.07330,  -3.9947,   1
 3061,'INISCARR', 110.0000,1,     0.000,     0.000,   3,   1,1.05528, -17.2937,   1
 3081,'INCHICOR', 110.0000,1,     0.000,     0.000,   1,   2,1.06843,  -7.8961,   2
 3082,'INCHICOR', 220.0000,1,     0.000,     0.000,   2,   2,1.07329,  -4.2829,   1
 3101,'IKERRIN ', 110.0000,1,     0.000,     0.000,   5,   1,1.03365, -19.4501,   2
 3122,'IRISHTOW', 220.0000,1,     0.000,     0.000,   2,   1,1.07374,  -3.5112,   1
 3201,'KNOCKRAH', 110.0000,1,     0.000,     0.000,   3,   1,1.06776, -16.5234,   1
 3202,'KNOCKRAH', 220.0000,1,     0.000,     0.000,   3,   1,1.05624, -14.1390,   1
 3221,'KILBARRY', 110.0000,1,     0.000,     0.000,   3,   1,1.05560, -17.1079,   1
 3241,'KILTEEL ', 110.0000,1,     0.000,     0.000,   8,   1,1.02898, -10.3299,   2
 3261,'KILKENNY', 110.0000,1,     0.000,     0.000,   8,   1,1.02255, -14.5731,   1
 3281,'KILLONAN', 110.0000,1,     0.000,     0.000,   7,   1,1.03043, -17.2636,   1
 3282,'KILLONAN', 220.0000,1,     0.000,     0.000,   7,   1,1.03700, -13.0236,   1
 3301,'KNOCKERA', 110.0000,1,     0.000,     0.000,   7,   1,1.02323, -17.2668,   1
 3321,'KNOCKUMB', 110.0000,1,     0.000,     0.000,  10,   3,0.98719, -13.8953,   5
 3341,'KELLIS  ', 110.0000,1,     0.000,     0.000,   8,   1,1.05262, -11.9174,   1
 3342,'KELLIS  ', 220.0000,1,     0.000,     0.000,   8,   1,1.04222,  -8.9660,   1
 3361,'KILTOY  ', 110.0000,1,     0.000,     0.000,   9,   3,0.99673, -24.4651,   5
 3371,'KILTOY  ', 110.0000,1,     0.000,     0.000,   9,   3,0.99664, -24.4706,   5
 3381,'KINNEGAD', 110.0000,1,     0.000,     0.000,   2,   1,1.04318,  -9.4435,   1
 3401,'KILLOTER', 110.0000,1,     0.000,     0.000,   5,   1,1.04847, -15.6778,   1
 3421,'KILMORE ', 110.0000,1,     0.000,     0.000,   1,   1,1.05565,  -8.2779,   2
 3501,'LANESBOR', 110.0000,1,     0.000,     0.000,   9,   1,1.04182, -16.7466,   1
 3521,'LOUTH   ', 110.0000,1,     0.000,     0.000,  10,   1,1.06313, -10.1130,   1
 3522,'LOUTH   ', 220.0000,2,     0.000,     0.000,  10,   1,1.03338,  -6.9642,   1
 3541,'LIMERICK', 110.0000,1,     0.000,     0.000,   7,   1,1.02017, -17.4847,   1
 3561,'LISDRUM ', 110.0000,1,     0.000,     0.000,  10,   1,1.01776, -13.2543,   1
 3581,'LETTERKE', 110.0000,1,     0.000,     0.000,   9,   1,0.99788, -24.3909,   1
 3601,'LIBERTY ', 110.0000,1,     0.000,     0.000,   3,   1,1.05663, -17.0008,   2
 3621,'LISHEEN ', 110.0000,1,     0.000,     0.000,   5,   1,1.03541, -20.9693,   1
 3761,'MACETOWN', 110.0000,1,     0.000,     0.000,   2,   2,1.05195,  -8.5332,   1
 3781,'MCDERMOT', 110.0000,1,     0.000,     0.000,   1,   2,1.05182,  -8.5662,   2
 3801,'MIDLETON', 110.0000,1,     0.000,     0.000,   3,   1,1.06022, -16.6146,   1
 3821,'MEATH HI', 110.0000,1,     0.000,     0.000,  10,   1,1.04713, -10.8562,   2
 3841,'MAYNOOTH', 110.0000,1,     0.000,     0.000,   2,   2,1.06165,  -7.9964,   1
 3842,'MAYNOOTH', 220.0000,1,     0.000,     0.000,   2,   2,1.06745,  -4.9267,   1
 3861,'MILLTOWN', 110.0000,1,     0.000,     0.000,   1,   2,1.06354,  -7.6011,   2
 3871,'MILLTOWN', 110.0000,1,     0.000,     0.000,   1,   2,1.06159,  -8.9574,   2
 3881,'MACROOM ', 110.0000,1,     0.000,     0.000,   3,   1,1.05116, -17.3807,   1
 3901,'MONETEEN', 110.0000,1,     0.000,     0.000,   7,   1,1.01882, -17.3921,   1
 3941,'MONEYPOI', 110.0000,1,     0.000,     0.000,   7,   1,1.00113, -18.1643,   1
 3942,'MONEYPOI', 220.0000,1,     0.000,     0.000,   7,   1,1.06916,  -7.0080,   1
 3944,'MNYPG1G3', 380.0000,1,     0.000,     6.000,   2,   1,1.07500,   3.5298,   1
 3954,'MNYPG2  ', 380.0000,1,     0.000,     6.000,   7,   1,1.07500,  -2.3333,   1
 3961,'MARINA  ', 110.0000,1,     0.000,     0.000,   3,   1,1.05700, -16.9732,   1
 3981,'MUNGRET ', 110.0000,1,     0.000,     0.000,   7,   3,1.01862, -17.4037,   5
 3991,'MUNGRET ', 110.0000,1,     0.000,     0.000,   7,   3,1.01862, -17.4031,   5
 4001,'MULLINGA', 110.0000,1,     0.000,     0.000,   9,   1,1.02317, -14.7909,   1
 4021,'MALLOW  ', 110.0000,1,     0.000,     0.000,   3,   1,1.03013, -18.0616,   1
 4041,'MOY     ', 110.0000,1,     0.000,     0.000,   9,   1,1.04859, -21.1713,   1
 4061,'MULLAGHA', 110.0000,1,     0.000,     0.000,  10,   1,1.05265, -10.6281,   2
 4081,'MONREAD ', 110.0000,1,     0.000,     0.000,   8,   1,1.02292, -10.9211,   1
 4201,'NEWBRIDG', 110.0000,1,     0.000,     0.000,   8,   1,1.01762, -11.5248,   1
 4221,'NAVAN   ', 110.0000,1,     0.000,     0.000,  10,   1,0.99088, -13.6657,   1
 4242,'NORTH WA', 220.0000,1,     0.000,     0.000,   2,   2,1.07519,  -4.1534,   1
 4281,'NANGOR  ', 110.0000,1,     0.000,     0.000,   1,   1,1.06314,  -8.3058,   1
 4341,'OLDCOURT', 110.0000,1,     0.000,     0.000,   3,   3,1.06182, -16.7234,   5
 4351,'OLDCOURT', 110.0000,1,     0.000,     0.000,   3,   3,1.06182, -16.7234,   5
 4361,'OUGHTRAG', 110.0000,1,     0.000,     0.000,   7,   1,1.02897, -16.5353,   2
 4382,'OLDSTREE', 220.0000,1,     0.000,     0.000,   9,   1,1.06385,  -4.5497,   1
 4384,'OLDSTREE', 380.0000,1,     0.000,     0.000,   9,   1,1.05286,  -0.7459,   1
 4441,'POLLAPHU', 110.0000,1,     0.000,     0.000,   8,   1,1.04523, -12.5181,   1
 4451,'POOLBEG ', 110.0000,1,     0.000,     0.000,   1,   1,1.06484,  -7.5278,   2
 4461,'POOLBEG ', 110.0000,1,     0.000,     0.000,   1,   1,1.06531,  -7.4199,   2
 4462,'POOLBEG ', 220.0000,1,     0.000,     0.000,   2,   2,1.07500,  -4.2377,   1
 4471,'POOLBEG ', 110.0000,1,     0.000,     0.000,   1,   1,1.06530,  -7.4232,   2
 4481,'PORTLAOI', 110.0000,1,     0.000,     0.000,   8,   1,1.03892, -11.1615,   1
 4501,'PLATIN  ', 110.0000,1,     0.000,     0.000,  10,   3,1.00892, -12.0111,   1
 4522,'PROSPECT', 220.0000,1,     0.000,     0.000,   7,   1,1.06731,  -8.2210,   1
 4621,'RYEBROOK', 110.0000,1,     0.000,     0.000,   2,   3,1.04859,  -8.8481,   1
 4651,'RINGSEND', 110.0000,1,     0.000,     0.000,   1,   2,1.06483,  -7.5276,   2
 4681,'RATHKEAL', 110.0000,1,     0.000,     0.000,   7,   1,1.03141, -15.6494,   1
 4701,'RICHMOND', 110.0000,1,     0.000,     0.000,   9,   1,1.03132, -17.2068,   2
 4721,'RAFFEEN ', 110.0000,1,     0.000,     0.000,   3,   1,1.06255, -16.8564,   1
 4722,'RAFFEEN ', 220.0000,1,     0.000,     0.000,   3,   1,1.05719, -15.2598,   1
 4741,'RINAWADE', 110.0000,1,     0.000,     0.000,   2,   3,1.05672,  -8.3386,   1
 4761,'RINGASKI', 110.0000,1,     0.000,     0.000,   3,   1,1.06242, -16.8639,   2
 4901,'SHELTON ', 110.0000,1,     0.000,     0.000,   6,   3,1.06007,  -9.3218,   5
 4911,'SHELTON ', 110.0000,1,     0.000,     0.000,   6,   3,1.06007,  -9.3218,   5
 4941,'SHANNONB', 110.0000,1,     0.000,     0.000,   5,   1,1.05469, -15.0516,   1
 4942,'SHANNONB', 220.0000,1,     0.000,     0.000,   5,   1,1.04080, -11.6707,   1
 4961,'SHANKILL', 110.0000,1,     0.000,     0.000,  10,   1,1.00389, -14.9592,   1
 4981,'SLIGO   ', 110.0000,1,     0.000,     0.000,   9,   1,1.03215, -20.6182,   1
 5001,'SOMERSET', 110.0000,1,     0.000,     0.000,   9,   1,1.04621, -15.3033,   2
 5022,'SHELLYBA', 220.0000,1,     0.000,     0.000,   2,   2,1.07402,  -3.4675,   1
 5061,'STRATFOR', 110.0000,1,     0.000,     0.000,   8,   1,1.04149, -12.5413,   2
 5141,'TARBERT ', 110.0000,1,     0.000,     0.000,   7,   1,1.05995, -12.2857,   1
 5142,'TARBERT ', 220.0000,1,     0.000,     0.000,   7,   1,1.06500,  -9.1387,   1
 5181,'TRABEG  ', 110.0000,1,     0.000,     0.000,   3,   1,1.05699, -17.0044,   1
 5202,'TURLOUGH', 220.0000,1,     0.000,     0.000,   2,   1,1.08226,  -3.4255,   1
 5221,'TULLABRA', 110.0000,1,     0.000,     0.000,   7,   1,1.00066, -18.1737,   2
 5241,'TAWN_A  ', 110.0000,1,     0.000,     0.000,   9,   3,1.04863, -21.1723,   2
 5251,'TAWN_B  ', 110.0000,1,     0.000,     0.000,   9,   3,1.04863, -21.1723,   2
 5261,'TRIEN   ', 110.0000,1,     0.000,     0.000,   7,   1,1.05986, -14.3312,   1
 5281,'TRALEE  ', 110.0000,1,     0.000,     0.000,   7,   1,1.04554, -15.4597,   1
 5301,'THURLES ', 110.0000,1,     0.000,     0.000,   5,   1,1.03941, -20.7244,   1
 5321,'THORNSBE', 110.0000,1,     0.000,     0.000,   2,   1,1.02515, -10.1864,   2
 5341,'TONROE  ', 110.0000,1,     0.000,     0.000,   9,   1,1.04808, -16.8064,   2
 5361,'TRILLICK', 110.0000,1,     0.000,     0.000,   9,   1,0.99022, -24.7601,   2
 5381,'TIPPERAR', 110.0000,1,     0.000,     0.000,   5,   1,1.04177, -19.2544,   1
 5441,'WATERFOR', 110.0000,1,     0.000,     0.000,   5,   1,1.04978, -15.5163,   1
...
0 / END OF BUS DATA, BEGIN LOAD DATA
   10,'LD',1,   1,   1,    57.610,    22.110,     0.000,     0.000,     0.000,     0.000,   2
   11,'LD',1,   1,   1,    64.200,    14.660,     0.000,     0.000,     0.000,     0.000,   2
   12,'LD',1,   1,   1,    70.680,    14.560,     0.000,     0.000,     0.000,     0.000,   2
   13,'LD',1,   1,   1,    74.080,    20.400,     0.000,     0.000,     0.000,     0.000,   2
   14,'LD',1,   1,   1,    71.000,    18.390,     0.000,     0.000,     0.000,     0.000,   2
   15,'LD',1,   1,   1,    66.330,    23.070,     0.000,     0.000,     0.000,     0.000,   2
 1101,'LD',1,   5,   2,    11.000,     3.850,     0.000,     0.000,     0.000,     0.000,   5
 1101,'MI',0,   5,   2,     6.500,     1.950,     0.000,     0.000,     0.000,     0.000,   5
 1871,'LD',1,   2,   2,    16.000,     5.250,     0.000,     0.000,     0.000,     0.000,   5
 2821,'LD',1,   9,   2,    16.000,     5.550,     0.000,     0.000,     0.000,     0.000,   5
 2821,'MI',0,   9,   2,     6.000,     1.800,     0.000,     0.000,     0.000,     0.000,   5
 3321,'LD',1,  10,   2,    22.000,     7.480,     0.000,     0.000,     0.000,     0.000,   5
 3321,'MI',0,  10,   2,     1.000,     0.300,     0.000,     0.000,     0.000,     0.000,   5
 3421,'LD',1,   1,   2,    12.000,     4.060,     0.000,     0.000,     0.000,     0.000,   5
 3621,'LD',1,   5,   2,    15.000,     4.930,     0.000,     0.000,     0.000,     0.000,   5
 3621,'MI',0,   5,   2,     2.000,     0.600,     0.000,     0.000,     0.000,     0.000,   5
 4501,'LD',1,  10,   2,    27.000,     9.170,     0.000,     0.000,     0.000,     0.000,   5
 4501,'MI',0,  10,   2,     6.500,     1.950,     0.000,     0.000,     0.000,     0.000,   5
10204,'LD',1,   7,   1,    13.820,     7.440,     0.000,     0.000,     0.000,     0.000,   2
10205,'LD',1,   7,   1,    58.460,    19.240,     0.000,     0.000,     0.000,     0.000,   2
10471,'LD',1,   3,   1,     9.660,     3.470,     0.000,     0.000,     0.000,     0.000,   3
10476,'LD',0,   3,   1,     0.360,     0.130,     0.000,     0.000,     0.000,     0.000,   3
10602,'LD',1,   9,   1,     5.310,     2.230,     0.000,     0.000,     0.000,     0.000,   2
10801,'LD',1,   7,   1,     5.310,     1.910,     0.000,     0.000,     0.000,     0.000,   2
11204,'LD',1,   6,   1,    17.130,     9.150,     0.000,     0.000,     0.000,     0.000,   2
11404,'LD',1,   9,   1,    43.370,    16.370,     0.000,     0.000,     0.000,     0.000,   2
12001,'LD',1,   1,   1,     9.780,     2.450,     0.000,     0.000,     0.000,     0.000,   2
12804,'LD',1,   3,   1,    10.630,     3.190,     0.000,     0.000,     0.000,     0.000,   2
13001,'LD',1,   6,   1,    13.160,     5.200,     0.000,     0.000,     0.000,     0.000,   2
13204,'LD',1,   8,   1,    14.650,     4.220,     0.000,     0.000,     0.000,     0.000,   2
13404,'LD',1,   9,   1,    19.350,     9.240,     0.000,     0.000,     0.000,     0.000,   2
13601,'LD',1,   5,   2,     5.900,     1.930,     0.000,     0.000,     0.000,     0.000,   5
13601,'MI',0,   5,   2,     1.590,     0.470,     0.000,     0.000,     0.000,     0.000,   5
13604,'LD',1,   5,   1,     3.080,     1.380,     0.000,     0.000,     0.000,     0.000,   2
13802,'LD',1,   3,   1,    24.240,     8.080,     0.000,     0.000,     0.000,     0.000,   2
13804,'LD',1,   3,   1,    23.170,     6.480,     0.000,     0.000,     0.000,     0.000,   2
14002,'LD',1,   9,   1,     4.570,     2.020,     0.000,     0.000,     0.000,     0.000,   2
14071,'LD',1,   9,   1,     1.480,     0.530,     0.000,     0.000,     0.000,     0.000,   3
14072,'LD',0,   9,   1,     1.600,     0.570,     0.000,     0.000,     0.000,     0.000,   3
14204,'LD',1,   2,   1,    50.600,    11.270,     0.000,     0.000,     0.000,     0.000,   2
14401,'LD',1,   3,   1,     7.910,     2.300,     0.000,     0.000,     0.000,     0.000,   2
14404,'LD',1,   3,   1,    19.730,     8.330,     0.000,     0.000,     0.000,     0.000,   2
14604,'LD',1,   5,   1,    27.960,     8.500,     0.000,     0.000,     0.000,     0.000,   2
14804,'LD',1,   5,   1,    27.850,     9.870,     0.000,     0.000,     0.000,     0.000,   2
15001,'LD',1,   3,   2,     4.200,     1.380,     0.000,     0.000,     0.000,     0.000,   5
15001,'MI',0,   3,   2,     2.290,     0.680,     0.000,     0.000,     0.000,     0.000,   5
15801,'LD',1,   1,   1,    13.070,     4.350,     0.000,     0.000,     0.000,     0.000,   2
16202,'LD',1,   3,   1,     9.460,     3.190,     0.000,     0.000,     0.000,     0.000,   2
16604,'LD',1,   9,   1,    41.110,    15.280,     0.000,     0.000,     0.000,     0.000,   2
17004,'LD',1,   9,   1,    11.690,     5.310,     0.000,     0.000,     0.000,     0.000,   2
17204,'LD',1,   5,   1,    17.850,     7.590,     0.000,     0.000,     0.000,     0.000,   2
17404,'LD',1,   2,   1,    55.270,    17.010,     0.000,     0.000,     0.000,     0.000,   2
17802,'LD',1,   7,   2,    44.000,    14.460,     0.000,     0.000,     0.000,     0.000,   5
17802,'MI',0,   7,   2,     5.000,     1.500,     0.000,     0.000,     0.000,     0.000,   5
18004,'LD',1,   1,   1,    61.440,    20.300,     0.000,     0.000,     0.000,     0.000,   2
18204,'LD',1,   9,   1,    17.350,     6.990,     0.000,     0.000,     0.000,     0.000,   2
18402,'LD',1,   6,   1,     2.980,     0.960,     0.000,     0.000,     0.000,     0.000,   2
18404,'LD',1,   6,   1,    20.730,     8.710,     0.000,     0.000,     0.000,     0.000,   2
18604,'LD',1,   9,   1,    30.310,    16.360,     0.000,     0.000,     0.000,     0.000,   2
18804,'LD',1,   3,   1,    12.140,     7.220,     0.000,     0.000,     0.000,     0.000,   2
19004,'LD',1,   8,   1,    41.820,    14.860,     0.000,     0.000,     0.000,     0.000,   2
19204,'LD',1,   3,   1,    15.840,     3.300,     0.000,     0.000,     0.000,     0.000,   2
19471,'LD',1,   8,   1,    11.700,     4.210,     0.000,     0.000,     0.000,     0.000,   4
19601,'LD',1,   3,   1,    12.010,     3.930,     0.000,     0.000,     0.000,     0.000,   2
20201,'LD',1,   1,   1,     8.400,     2.760,     0.000,     0.000,     0.000,     0.000,   2
21004,'LD',1,  10,   1,    49.960,    18.390,     0.000,     0.000,     0.000,     0.000,   2
21204,'LD',1,   7,   1,    34.220,    10.510,     0.000,     0.000,     0.000,     0.000,   2
21404,'LD',1,   5,   1,    21.370,     7.540,     0.000,     0.000,     0.000,     0.000,   2
21604,'LD',1,   5,   1,    26.260,     5.100,     0.000,     0.000,     0.000,     0.000,   2
21804,'LD',1,  10,   1,    53.790,    19.660,     0.000,     0.000,     0.000,     0.000,   2
22204,'LD',1,   3,   1,    29.980,    11.370,     0.000,     0.000,     0.000,     0.000,   2
22404,'LD',1,   5,   1,     9.460,     4.040,     0.000,     0.000,     0.000,     0.000,   2
22804,'LD',1,   9,   1,    13.480,     4.700,     0.000,     0.000,     0.000,     0.000,   2
23001,'LD',1,   2,   1,     5.330,     1.840,     0.000,     0.000,     0.000,     0.000,   2
23604,'LD',1,   7,   1,    42.940,    14.030,     0.000,     0.000,     0.000,     0.000,   2
24804,'LD',1,   2,   1,    40.390,    16.050,     0.000,     0.000,     0.000,     0.000,   2
25604,'LD',1,   2,   1,    83.230,    25.300,     0.000,     0.000,     0.000,     0.000,   2
26802,'LD',1,   9,   2,    12.000,     3.940,     0.000,     0.000,     0.000,     0.000,   5
26802,'MI',0,   9,   2,     2.000,     0.600,     0.000,     0.000,     0.000,     0.000,   5
27004,'LD',1,   2,   1,    40.170,     4.350,     0.000,     0.000,     0.000,     0.000,   2
27204,'LD',1,   2,   1,    41.660,     4.250,     0.000,     0.000,     0.000,     0.000,   2
27404,'LD',1,   6,   1,    11.690,     5.310,     0.000,     0.000,     0.000,     0.000,   2
27471,'LD',0,   6,   1,     3.000,     1.080,     0.000,     0.000,     0.000,     0.000,   3
27472,'LD',0,   6,   1,     3.000,     1.080,     0.000,     0.000,     0.000,     0.000,   3
27473,'LD',0,   6,   1,     8.040,     2.890,     0.000,     0.000,     0.000,     0.000,   3
27604,'LD',1,   1,   1,    32.420,    10.630,     0.000,     0.000,     0.000,     0.000,   2
27802,'LD',1,   9,   1,    10.200,     3.400,     0.000,     0.000,     0.000,     0.000,   2
27804,'LD',1,   9,   1,    88.970,    29.020,     0.000,     0.000,     0.000,     0.000,   2
28604,'LD',1,   1,   1,    10.860,     3.030,     0.000,     0.000,     0.000,     0.000,   2
28804,'LD',1,   3,   1,    10.220,     3.610,     0.000,     0.000,     0.000,     0.000,   2
29401,'LD',1,   1,   1,    12.540,     4.150,     0.000,     0.000,     0.000,     0.000,   2
29671,'LD',1,   2,   2,     6.900,     2.480,     0.000,     0.000,     0.000,     0.000,   4
30804,'LD',1,   1,   1,    78.430,    24.610,     0.000,     0.000,     0.000,     0.000,   2
31004,'LD',1,   5,   1,    21.790,     9.570,     0.000,     0.000,     0.000,     0.000,   2
31271,'LD',1,   2,   2,     6.980,     2.510,     0.000,     0.000,     0.000,     0.000,   4
32201,'LD',1,   3,   1,     9.350,     3.080,     0.000,     0.000,     0.000,     0.000,   2
32204,'LD',1,   3,   1,    62.180,    19.440,     0.000,     0.000,     0.000,     0.000,   2
32404,'LD',1,   8,   1,    13.670,     7.540,     0.000,     0.000,     0.000,     0.000,   2
32604,'LD',1,   8,   1,    49.750,    18.060,     0.000,     0.000,     0.000,     0.000,   2
33004,'LD',1,   7,   1,    40.330,    16.510,     0.000,     0.000,     0.000,     0.000,   2
33601,'LD',1,   9,   2,    18.000,     5.910,     0.000,     0.000,     0.000,     0.000,   5
33601,'MI',0,   9,   2,     4.000,     1.200,     0.000,     0.000,     0.000,     0.000,   5
33801,'LD',1,   2,   2,     7.700,     2.530,     0.000,     0.000,     0.000,     0.000,   5
33801,'MI',0,   2,   2,     2.290,     0.680,     0.000,     0.000,     0.000,     0.000,   5
34001,'LD',1,   5,   1,     8.500,     1.700,     0.000,     0.000,     0.000,     0.000,   2
35004,'LD',1,   9,   1,     6.910,     2.230,     0.000,     0.000,     0.000,     0.000,   2
35404,'LD',1,   7,   1,    54.110,    14.560,     0.000,     0.000,     0.000,     0.000,   2
35604,'LD',1,  10,   1,    24.770,     9.990,     0.000,     0.000,     0.000,     0.000,   2
35804,'LD',1,   9,   1,    39.120,    23.060,     0.000,     0.000,     0.000,     0.000,   2
36001,'LD',1,   3,   1,    14.030,     4.570,     0.000,     0.000,     0.000,     0.000,   2
37601,'LD',1,   2,   1,    10.740,     3.510,     0.000,     0.000,     0.000,     0.000,   2
37602,'LD',1,   2,   2,     5.000,     1.640,     0.000,     0.000,     0.000,     0.000,   5
37602,'MI',0,   2,   2,     6.000,     1.800,     0.000,     0.000,     0.000,     0.000,   5
38001,'LD',1,   3,   1,     5.830,     1.910,     0.000,     0.000,     0.000,     0.000,   2
38004,'LD',1,   3,   1,    23.080,     8.500,     0.000,     0.000,     0.000,     0.000,   2
38204,'LD',1,  10,   1,    35.080,    13.820,     0.000,     0.000,     0.000,     0.000,   2
38804,'LD',1,   3,   1,    16.580,     1.490,     0.000,     0.000,     0.000,     0.000,   2
39471,'LD',1,   9,   1,    20.000,     7.200,     0.000,     0.000,     0.000,     0.000,   3
39472,'LD',1,   2,   2,    20.000,     7.200,     0.000,     0.000,     0.000,     0.000,   3
39473,'LD',1,   7,   1,    20.000,     7.200,     0.000,     0.000,     0.000,     0.000,   3
39601,'LD',1,   3,   1,    20.520,     6.910,     0.000,     0.000,     0.000,     0.000,   2
39672,'LD',1,   3,   1,     2.670,     0.960,     0.000,     0.000,     0.000,     0.000,   3
39675,'LD',1,   3,   1,     4.270,     1.530,     0.000,     0.000,     0.000,     0.000,   3
39801,'LD',1,   7,   2,    20.000,     6.570,     0.000,     0.000,     0.000,     0.000,   5
39801,'MI',0,   7,   2,     7.000,     2.100,     0.000,     0.000,     0.000,     0.000,   5
40004,'LD',1,   9,   1,    29.340,    12.010,     0.000,     0.000,     0.000,     0.000,   2
40204,'LD',1,   3,   1,    16.730,     6.020,     0.000,     0.000,     0.000,     0.000,   2
40404,'LD',1,   9,   1,    23.370,     6.910,     0.000,     0.000,     0.000,     0.000,   2
40602,'LD',1,  10,   2,     8.000,     2.620,     0.000,     0.000,     0.000,     0.000,   5
40801,'LD',1,   8,   1,    11.310,     4.470,     0.000,     0.000,     0.000,     0.000,   2
42004,'LD',1,   8,   1,    33.670,    13.800,     0.000,     0.000,     0.000,     0.000,   2
42204,'LD',1,  10,   1,    43.370,    16.580,     0.000,     0.000,     0.000,     0.000,   2
42802,'LD',1,   1,   2,    26.000,     8.540,     0.000,     0.000,     0.000,     0.000,   5
43604,'LD',1,   7,   1,    17.110,     6.060,     0.000,     0.000,     0.000,     0.000,   2
44671,'LD',1,   2,   2,     4.330,     1.560,     0.000,     0.000,     0.000,     0.000,   3
44672,'LD',0,   2,   2,     5.520,     1.980,     0.000,     0.000,     0.000,     0.000,   3
44673,'LD',1,   2,   2,    10.790,     3.880,     0.000,     0.000,     0.000,     0.000,   3
44804,'LD',1,   8,   1,    31.890,    10.630,     0.000,     0.000,     0.000,     0.000,   2
46210,'LD',1,   2,   2,    24.000,     7.880,     0.000,     0.000,     0.000,     0.000,   5
46214,'LD',1,   2,   2,    21.400,     7.030,     0.000,     0.000,     0.000,     0.000,   5
46224,'LD',1,   2,   2,    31.000,    10.180,     0.000,     0.000,     0.000,     0.000,   5
46501,'LD',1,   1,   1,     3.930,     1.280,     0.000,     0.000,     0.000,     0.000,   2
46804,'LD',1,   7,   1,    25.510,     8.500,     0.000,     0.000,     0.000,     0.000,   2
47004,'LD',1,   9,   1,    22.430,     9.570,     0.000,     0.000,     0.000,     0.000,   2
47402,'LD',1,   2,   2,    16.000,     5.250,     0.000,     0.000,     0.000,     0.000,   5
47601,'LD',1,   3,   1,     2.430,     0.850,     0.000,     0.000,     0.000,     0.000,   2
49604,'LD',1,  10,   1,    59.210,    27.640,     0.000,     0.000,     0.000,     0.000,   2
49804,'LD',1,   9,   1,    38.370,    15.090,     0.000,     0.000,     0.000,     0.000,   2
50004,'LD',1,   9,   1,    24.130,     9.350,     0.000,     0.000,     0.000,     0.000,   2
50276,'LD',1,   2,   2,     9.520,     3.420,     0.000,     0.000,     0.000,     0.000,   3
50604,'LD',1,   8,   1,    15.390,     6.190,     0.000,     0.000,     0.000,     0.000,   2
51471,'LD',0,   7,   1,     3.000,     1.080,     0.000,     0.000,     0.000,     0.000,   3
51472,'LD',0,   7,   1,     3.000,     1.080,     0.000,     0.000,     0.000,     0.000,   3
51473,'LD',0,   7,   1,    15.300,     5.510,     0.000,     0.000,     0.000,     0.000,   3
51474,'LD',1,   7,   1,    12.880,     4.630,     0.000,     0.000,     0.000,     0.000,   3
51801,'LD',1,   1,   1,    11.690,     4.040,     0.000,     0.000,     0.000,     0.000,   2
51804,'LD',1,   3,   1,    33.800,     5.420,     0.000,     0.000,     0.000,     0.000,   2
52204,'LD',1,   7,   1,     7.550,     2.980,     0.000,     0.000,     0.000,     0.000,   2
52476,'LD',0,   9,   1,     0.360,     0.130,     0.000,     0.000,     0.000,     0.000,   3
52604,'LD',1,   7,   1,    24.240,     9.350,     0.000,     0.000,     0.000,     0.000,   2
52804,'LD',1,   7,   1,    39.330,    14.990,     0.000,     0.000,     0.000,     0.000,   2
53004,'LD',1,   5,   1,    23.390,     7.870,     0.000,     0.000,     0.000,     0.000,   2
53204,'LD',1,   2,   1,    24.980,    11.480,     0.000,     0.000,     0.000,     0.000,   2
53404,'LD',1,   9,   1,    10.720,     3.520,     0.000,     0.000,     0.000,     0.000,   2
53604,'LD',1,   9,   1,    10.310,     2.130,     0.000,     0.000,     0.000,     0.000,   2
53804,'LD',1,   5,   1,    14.240,     4.110,     0.000,     0.000,     0.000,     0.000,   2
54404,'LD',1,   5,   1,    37.620,     9.660,     0.000,     0.000,     0.000,     0.000,   2
54801,'LD',1,   3,   2,     0.500,     0.160,     0.000,     0.000,     0.000,     0.000,   5
54801,'MI',0,   3,   2,     7.910,     2.370,     0.000,     0.000,     0.000,     0.000,   5
55004,'LD',1,   6,   1,    38.150,    14.670,     0.000,     0.000,     0.000,     0.000,   2
55201,'LD',1,   1,   1,    29.440,     9.660,     0.000,     0.000,     0.000,     0.000,   2
0 / END OF LOAD DATA, BEGIN GENERATOR DATA
10204,'1 ',     0.900,     0.000,     0.000,     0.000,1.00000,    0,     2.550,   0.00000,   0.20000,   0.00000,   0.20000,1.00000,1,  100.0,     2.550,     0.000,   4,1.0000
10204,'2 ',     0.200,     0.000,     0.000,     0.000,1.00000,    0,     0.660,   0.00000,   0.20000,   0.00000,   0.00000,1.00000,1,  100.0,     0.660,     0.000,   4,1.0000
10271,'1 ',    15.000,     3.861,    15.000,    -7.000,1.01200, 1021,    34.000,   0.00000,   0.22000,   0.00000,   0.00000,1.00000,1,   15.0,    22.000,     5.000,   3,1.0000
10272,'2 ',    22.000,     0.000,    15.000,    -7.000,1.07500, 1021,    34.000,   0.00000,   0.22000,   0.00000,   0.00000,1.00000,0,   15.0,    22.000,     5.000,   3,1.0000
10273,'3 ',    22.000,     0.000,    15.000,    -7.000,1.07500, 1021,    30.000,   0.00000,   0.22000,   0.00000,   0.00000,1.00000,0,   15.0,    22.000,     5.000,   3,1.0000
10274,'4 ',    23.000,     0.000,    15.000,    -7.000,1.07500, 1021,    34.000,   0.00000,   0.22000,   0.00000,   0.00000,1.00000,0,   15.0,    23.000,     5.000,   3,1.0000
10471,'1 ',   214.700,   126.063,   153.000,   -53.000,1.07000, 1042,   318.800,   0.00000,   0.22500,   0.00000,   0.00000,1.00000,1,  153.0,   270.000,    40.000,   3,1.0000
10472,'11',    90.000,     0.000,    60.000,   -30.000,1.07500, 1042,   100.900,   0.00000,   0.12500,   0.00000,   0.00000,1.00000,0,   60.0,    90.000,    20.000,   3,1.0000
10473,'12',    90.000,     0.000,    60.000,   -30.000,1.07500, 1042,   100.900,   0.00000,   0.12500,   0.00000,   0.00000,1.00000,0,   60.0,    90.000,    20.000,   3,1.0000
10474,'14',    90.000,     0.000,    60.000,   -30.000,1.07500, 1042,   100.900,   0.00000,   0.12500,   0.00000,   0.00000,1.00000,0,   60.0,    90.000,    20.000,   3,1.0000
10476,'1 ',    52.000,     0.000,    32.600,   -22.700,1.07500, 1042,    62.000,   0.00000,   0.15100,   0.00000,   0.00000,1.00000,0,   32.6,    52.000,     1.200,   3,1.0000
10602,'1 ',     0.400,    -0.180,    -0.180,    -0.180,1.05000,    0,     1.200,   0.00000,   0.20000,   0.00000,   0.20000,1.00000,1,  100.0,     1.200,     0.000,   4,1.0000
10602,'2 ',     1.700,    -0.740,    -0.740,    -0.740,1.05000,    0,     4.850,   0.00000,   0.20000,   0.00000,   0.20000,1.00000,1,  100.0,     4.850,     0.000,   4,1.0000
10602,'3 ',     1.800,    -0.760,    -0.760,    -0.760,1.05000,    0,     5.000,   0.00000,   0.20000,   0.00000,   0.20000,1.00000,1,  100.0,     5.000,     0.000,   4,1.0000
10602,'4 ',     1.200,    -1.400,    -1.400,    -1.400,1.05000,    0,     3.400,   0.00000,   0.20000,   0.00000,   0.20000,1.00000,1,  100.0,     3.400,     0.000,   4,1.0000
11204,'1 ',     8.900,     0.000,     0.000,     0.000,1.05000,    0,    25.500,   0.00000,   0.20000,   0.00000,   0.20000,1.00000,1,  100.0,    25.500,     0.000,   2,1.0000
12804,'1 ',     3.000,     0.000,     0.000,     0.000,1.00000,    0,     8.500,   0.00000,   0.20000,   0.00000,   0.20000,1.00000,1,  100.0,     8.500,     0.000,   1,1.0000
13404,'1 ',     0.200,     0.000,     0.000,     0.000,1.05000,    0,     0.660,   0.00000,   0.20000,   0.00000,   0.20000,1.00000,1,  100.0,     0.660,     0.000,   4,1.0000
14002,'3 ',     2.100,    -0.920,    -0.920,    -0.920,1.05000,    0,     6.000,   0.00000,   0.20000,   0.00000,   0.10000,1.00000,1,  100.0,     6.000,     0.000,   3,1.0000
14071,'1 ',    18.500,     3.770,    11.000,    -6.000,1.05500, 1401,    25.000,   0.00000,   0.11700,   0.00000,   0.00000,1.00000,1,   11.0,    20.000,    10.000,   3,1.0000
14072,'2 ',    20.000,     0.000,    11.000,    -6.000,1.05500, 1401,    25.000,   0.00000,   0.11700,   0.00000,   0.00000,1.00000,0,   11.0,    20.000,    10.000,   3,1.0000
14604,'1 ',     0.000,     0.000,     1.000,    -1.000,1.05000,    0,     7.000,   0.00000,   0.15000,   0.00000,   0.10000,1.00000,0,    1.0,     0.000,     0.000,   5,1.0000
16604,'1 ',     1.200,    -0.520,    -0.520,    -0.520,1.05000,    0,     3.400,   0.00000,   0.20000,   0.00000,   0.20000,1.00000,1,  100.0,     3.400,     0.000,   4,1.0000
16604,'2 ',     6.500,     0.000,     0.000,     0.000,1.05000,    0,    18.700,   0.00000,   0.20000,   0.00000,   0.20000,1.00000,1,  100.0,    18.700,     0.000,   4,1.0000
16873,'3 ',     8.000,     0.000,     7.000,    -1.000,1.07500, 1681,    11.500,   0.00000,   0.25000,   0.00000,   0.00000,1.00000,0,    7.0,     8.000,     2.000,   3,1.0000
17004,'4 ',     1.200,     0.000,     0.000,     0.000,1.05000,    0,     3.450,   0.00000,   0.20000,   0.00000,   0.20000,1.00000,1,  100.0,     3.400,     0.000,   2,1.0000
17004,'5 ',     1.100,    -0.470,    -0.470,    -0.470,1.05000,    0,     3.200,   0.00000,   0.20000,   0.00000,   0.20000,1.00000,1,  100.0,     3.100,     0.000,   4,1.0000
17073,'3 ',     8.000,     2.118,     7.000,   -10.000,1.02000, 1701,    30.000,   0.00000,   0.20000,   0.00000,   0.00000,1.00000,1,    7.0,    22.500,     5.000,   3,1.0000
17074,'4 ',    22.500,     0.000,     7.000,   -10.000,1.02000, 1701,    30.000,   0.00000,   0.20000,   0.00000,   0.00000,1.00000,0,    7.0,    22.500,     5.000,   3,1.0000
17671,'1 ',     5.000,     2.118,     7.000,    -3.000,1.02000, 1701,    12.500,   0.00000,   0.15000,   0.00000,   0.00000,1.00000,1,    7.0,    10.000,     3.000,   3,1.0000
17672,'2 ',    10.000,     0.000,     7.000,    -3.000,1.02000, 1701,    12.500,   0.00000,   0.13500,   0.00000,   0.00000,1.00000,0,    7.0,    10.000,     3.000,   3,1.0000
19402,'1 ',     8.300,    -9.568,     6.000,   -12.000,1.00000,    0,    25.000,   0.00000,   0.20000,   0.00000,   0.10000,1.00000,1,    6.0,    25.000,     0.000,   1,1.0000
19471,'1 ',   130.000,    24.810,    75.000,   -50.000,1.07500, 1941,   153.000,   0.00000,   0.15300,   0.00000,   0.00000,1.00000,1,   75.0,   130.000,    60.000,   4,1.0000
22204,'1 ',     1.600,    -0.700,    -0.700,    -0.700,1.00000,    0,     4.600,   0.00000,   0.20000,   0.00000,   0.20000,1.00000,1,  100.0,     4.600,     0.000,   3,1.0000
22204,'2 ',     2.100,    -0.920,    -0.920,    -0.920,1.00000,    0,     6.000,   0.00000,   0.20000,   0.00000,   0.20000,1.00000,1,  100.0,     6.000,     0.000,   3,1.0000
22204,'3 ',     2.100,     0.000,     0.000,     0.000,1.00000,    0,     5.950,   0.00000,   0.20000,   0.00000,   0.20000,1.00000,1,  100.0,     5.950,     0.000,   4,1.0000
27204,'5 ',     4.000,     0.000,     1.000,    -1.000,1.00000,    0,     5.000,   0.00000,   0.27000,   0.00000,   0.10000,1.00000,0,    1.0,     4.000,     0.000,   3,1.0000
27471,'1 ',    60.000,     0.000,    42.000,    -3.000,1.07500, 2741,    75.000,   0.00000,   0.16000,   0.00000,   0.00000,1.00000,0,   42.0,    60.000,    25.000,   3,1.0000
27472,'2 ',    60.000,     0.000,    40.000,    -3.000,1.07500, 2741,    75.000,   0.00000,   0.16000,   0.00000,   0.00000,1.00000,0,   40.0,    60.000,    25.000,   3,1.0000
27473,'3 ',   120.000,     0.000,    82.000,   -48.000,1.07500, 2742,   150.000,   0.00000,   0.14600,   0.00000,   0.00000,1.00000,0,   82.0,   120.000,    30.000,   3,1.0000
27804,'1 ',     1.200,    -0.500,    -0.500,    -0.500,1.00000,    0,     3.300,   0.00000,   0.20000,   0.00000,   0.20000,1.00000,1,  100.0,     3.300,     0.000,   4,1.0000
27804,'2 ',     0.200,     0.000,     0.000,     0.000,1.00000,    0,     0.675,   0.00000,   0.20000,   0.00000,   0.20000,1.00000,1,  100.0,     0.675,     0.000,   2,1.0000
28002,'1 ',     5.300,    -2.290,    -2.290,    -2.290,1.00000,    0,    15.000,   0.00000,   0.20000,   0.00000,   0.10000,1.00000,1,  100.0,    15.000,     0.000,   4,1.0000
29671,'CT',   230.000,    30.027,   173.000,  -106.000,1.07500, 4462,   288.000,   0.00000,   0.14500,   0.00000,   0.00000,1.00000,1,  173.0,   230.000,   138.000,   4,1.0000
29672,'ST',   120.000,    15.621,    90.000,   -47.000,1.07500, 4462,   150.000,   0.00000,   0.15500,   0.00000,   0.00000,1.00000,1,   90.0,   120.000,    89.000,   4,1.0000
30671,'1 ',     1.000,     7.351,    13.000,    -4.000,1.05800, 3061,    21.400,   0.00000,   0.16000,   0.00000,   0.00000,1.00000,0,    3.0,    15.000,     4.000,   3,1.0000
30671,'2 ',     1.000,     3.000,     3.000,    -1.000,1.05800, 3061,     5.700,   0.00000,   0.14000,   0.00000,   0.00000,1.00000,1,    3.0,     4.000,     1.000,   3,1.0000
31271,'1 ',   399.000,    34.713,   200.000,  -114.000,1.07500, 4462,   500.000,   0.00000,   0.19000,   0.00000,   0.00000,1.00000,1,  200.0,   399.000,   163.000,   4,1.0000
32604,'1 ',     0.000,     0.000,     1.000,    -1.000,1.05000,    0,    15.000,   0.00000,   0.15000,   0.00000,   0.10000,1.00000,0,    1.0,     0.000,     0.000,   5,1.0000
35804,'1 ',     5.300,    -2.290,    -2.290,    -2.290,1.05000,    0,    15.000,   0.00000,   0.20000,   0.00000,   0.20000,1.00000,1,  100.0,    15.000,     0.000,   4,1.0000
35804,'2 ',     1.700,    -0.760,    -0.760,    -0.760,1.05000,    0,     5.300,   0.00000,   0.20000,   0.00000,   0.20000,1.00000,1,  100.0,     4.980,     0.000,   4,1.0000
35804,'3 ',     4.200,    -1.840,    -1.840,    -1.840,1.05000,    0,    12.000,   0.00000,   0.20000,   0.00000,   0.20000,1.00000,1,  100.0,    12.000,     0.000,   4,1.0000
35804,'4 ',     0.900,     0.000,     0.000,     0.000,1.05000,    0,     2.550,   0.00000,   0.20000,   0.00000,   0.20000,1.00000,1,  100.0,     2.550,     0.000,   4,1.0000
35804,'5 ',     0.900,     0.000,     0.000,     0.000,1.05000,    0,     2.550,   0.00000,   0.20000,   0.00000,   0.20000,1.00000,1,  100.0,     2.450,     0.000,   4,1.0000
39471,'1 ',   305.000,    86.528,   160.000,   -70.000,1.07500, 3944,   359.000,   0.00000,   0.17900,   0.00000,   0.00000,1.00000,1,  160.0,   305.000,   115.000,   3,1.0000
39472,'2 ',   305.000,    69.671,   160.000,   -70.000,1.07500, 3954,   359.000,   0.00000,   0.17900,   0.00000,   0.00000,1.00000,1,  160.0,   305.000,   115.000,   3,1.0000
39473,'3 ',   305.000,    86.528,   160.000,   -70.000,1.07500, 3944,   359.000,   0.00000,   0.17900,   0.00000,   0.00000,1.00000,1,  160.0,   305.000,   115.000,   3,1.0000
39672,'2 ',    26.700,     2.690,    15.000,     0.000,1.05700, 3961,    40.000,   0.00000,   0.12200,   0.00000,   0.00000,1.00000,1,   15.0,    30.000,    10.000,   3,1.0000
39675,'GT',    76.300,    10.762,    60.000,   -19.000,1.05700, 3961,   100.900,   0.00000,   0.12500,   0.00000,   0.00000,1.00000,1,   60.0,    90.000,    30.000,   3,1.0000
42404,'1 ',    13.500,     4.064,     5.000,     0.000,1.05000,    0,    20.000,   0.00000,   0.11700,   0.00000,   0.10500,1.07000,1,    5.0,    15.000,     6.000,   3,1.0000
42404,'2 ',    13.500,     4.064,     5.000,     0.000,1.05000,    0,    20.000,   0.00000,   0.11700,   0.00000,   0.10500,1.07000,1,    5.0,    15.000,     6.000,   3,1.0000
42404,'3 ',    13.500,     4.064,     5.000,     0.000,1.05000,    0,    20.000,   0.00000,   0.11700,   0.00000,   0.10000,1.07000,1,    5.0,    15.000,     6.000,   3,1.0000
42474,'4 ',   107.600,     9.546,    55.000,   -20.000,1.07500, 4462,   132.100,   0.00000,   0.13900,   0.00000,   0.00000,1.00000,1,   55.0,   118.000,    40.000,   3,1.0000
42475,'5 ',   109.000,     0.000,    55.000,   -20.000,1.07500, 4462,   132.100,   0.00000,   0.13900,   0.00000,   0.00000,1.00000,0,   55.0,   109.000,    20.000,   3,1.0000
44471,'1 ',     1.000,     8.293,     9.000,   -10.000,1.05500, 4441,    18.800,   0.00000,   0.27000,   0.00000,   0.00000,1.00000,0,    3.0,    15.000,     5.000,   3,1.0000
44471,'4 ',     1.000,     3.000,     3.000,    -1.000,1.05500, 4441,     5.000,   0.00000,   0.27000,   0.00000,   0.00000,1.00000,1,    3.0,     4.000,     1.000,   3,1.0000
44472,'2 ',    15.000,     0.000,     9.000,   -10.000,1.05500, 4441,    18.800,   0.00000,   0.27000,   0.00000,   0.00000,1.00000,0,    9.0,    15.000,     5.000,   3,1.0000
44671,'1 ',    94.300,    11.282,    65.000,   -43.000,1.07500, 4462,   150.000,   0.00000,   0.16700,   0.00000,   0.00000,1.00000,1,   65.0,   120.000,    60.000,   3,1.0000
44672,'2 ',   120.000,     0.000,    66.000,   -46.000,1.07500, 4462,   150.000,   0.00000,   0.16700,   0.00000,   0.00000,1.00000,0,   66.0,   120.000,    60.000,   3,1.0000
44673,'3 ',   215.800,    17.357,   100.000,   -48.000,1.07500, 4462,   318.800,   0.00000,   0.22500,   0.00000,   0.00000,1.00000,1,  100.0,   270.000,    60.000,   3,1.0000
46210,'1 ',     0.000,     0.000,     1.000,    -1.000,1.05000,    0,    20.000,   0.00000,   0.20000,   0.00000,   0.10000,1.00000,0,    1.0,     0.000,     0.000,   5,1.0000
49604,'1 ',     1.100,    -0.460,    -0.460,    -0.460,1.05000,    0,     3.000,   0.00000,   0.20000,   0.00000,   0.20000,1.00000,1,  100.0,     3.000,     0.000,   4,1.0000
49604,'2 ',     1.100,     0.000,     0.000,     0.000,1.05000,    0,     3.000,   0.00000,   0.20000,   0.00000,   0.20000,1.00000,1,  100.0,     3.000,     0.000,   4,1.0000
50004,'1 ',     2.700,    -1.170,    -1.170,    -1.170,1.05000,    0,     7.650,   0.00000,   0.20000,   0.00000,   0.20000,1.00000,1,  100.0,     7.650,     0.000,   2,1.0000
50274,'14',   134.000,    13.018,    75.000,   -40.000,1.07500, 4462,   170.000,   0.00000,   0.16200,   0.00000,   0.00000,1.00000,1,   75.0,   150.000,    50.000,   3,1.0000
50275,'15',   134.000,    13.018,    75.000,   -60.000,1.07500, 4462,   170.000,   0.00000,   0.16200,   0.00000,   0.00000,1.00000,1,   75.0,   150.000,    50.000,   3,1.0000
50276,'16',   161.400,    13.885,    80.000,   -40.000,1.07500, 4462,   230.000,   0.00000,   0.15800,   0.00000,   0.00000,1.00000,1,   80.0,   170.000,    30.000,   3,1.0000
51471,'1 ',    60.000,     0.000,    25.000,   -10.000,1.07500, 5142,    75.000,   0.00000,   0.13500,   0.00000,   0.00000,1.00000,0,   25.0,    60.000,    30.000,   3,1.0000
51472,'2 ',    60.000,     0.000,    25.000,   -10.000,1.07500, 5142,    75.000,   0.00000,   0.13500,   0.00000,   0.00000,1.00000,0,   25.0,    60.000,    30.000,   3,1.0000
51473,'3 ',   256.000,     0.000,   110.000,   -45.000,1.06500, 5142,   294.000,   0.00000,   0.20700,   0.00000,   0.00000,1.00000,0,  110.0,   256.000,    40.000,   3,1.0000
51474,'4 ',   215.400,    67.109,   110.000,   -45.000,1.06500, 5142,   294.000,   0.00000,   0.20700,   0.00000,   0.00000,1.00000,1,  110.0,   256.000,    40.000,   3,1.0000
52071,'1 ',    37.143,    12.828,    40.000,   -35.000,1.08000,    0,    87.500,   0.00000,   0.15000,   0.00000,   0.00000,1.00000,1,   40.0,    73.000,   -73.000,   3,1.0000
52071,'2 ',    37.143,    12.828,    40.000,   -35.000,1.08000,    0,    87.500,   0.00000,   0.15000,   0.00000,   0.00000,1.00000,1,   40.0,    73.000,   -73.000,   3,1.0000
52071,'3 ',    37.143,    12.828,    40.000,   -35.000,1.08000,    0,    87.500,   0.00000,   0.15000,   0.00000,   0.00000,1.00000,1,   40.0,    73.000,   -73.000,   3,1.0000
52071,'4 ',    37.143,    12.828,    40.000,   -35.000,1.08000,    0,    87.500,   0.00000,   0.15000,   0.00000,   0.00000,1.00000,1,   40.0,    73.000,   -73.000,   3,1.0000
52204,'1 ',     4.400,     0.000,     0.000,     0.000,1.00000,    0,    12.600,   0.00000,   0.20000,   0.00000,   0.20000,1.00000,1,  100.0,    12.600,     0.000,   4,1.0000
52476,'1 ',    52.400,     0.000,    32.600,   -22.700,1.07500, 5241,    62.000,   0.00000,   0.15100,   0.00000,   0.00000,1.00000,0,   32.6,    52.400,     1.200,   3,1.0000
52604,'1 ',     1.500,    -0.660,    -0.660,    -0.660,1.05000,    0,     4.300,   0.00000,   0.20000,   0.00000,   0.20000,1.00000,1,  100.0,     4.290,     0.000,   4,1.0000
52604,'2 ',     2.700,     0.000,     0.000,     0.000,1.05000,    0,     7.600,   0.00000,   0.20000,   0.00000,   0.20000,1.00000,1,  100.0,     7.600,     0.000,   4,1.0000
52804,'1 ',     5.300,    -2.290,    -2.290,    -2.290,1.00000,    0,    15.000,   0.00000,   0.20000,   0.00000,   0.20000,1.00000,1,  100.0,    15.000,     0.000,   4,1.0000
52804,'2 ',     2.400,    -1.040,    -1.040,    -1.040,1.00000,    0,     6.800,   0.00000,   0.20000,   0.00000,   0.20000,1.00000,1,  100.0,     6.800,     0.000,   2,1.0000
52804,'3 ',     1.400,    -0.610,    -0.610,    -0.610,1.00000,    0,     4.000,   0.00000,   0.20000,   0.00000,   0.20000,1.00000,1,  100.0,     4.000,     0.000,   4,1.0000
52804,'5 ',     1.800,     0.000,     0.000,     0.000,1.00000,    0,     5.100,   0.00000,   0.20000,   0.00000,   0.20000,1.00000,1,  100.0,     5.100,     0.000,   2,1.0000
53404,'1 ',     2.100,    -0.910,    -0.910,    -0.910,1.05000,    0,     6.000,   0.00000,   0.20000,   0.00000,   0.20000,1.00000,1,  100.0,     5.940,     0.000,   3,1.0000
53604,'1 ',     1.800,    -0.760,    -0.760,    -0.760,1.05000,    0,     5.000,   0.00000,   0.20000,   0.00000,   0.20000,1.00000,1,  100.0,     5.000,     0.000,   4,1.0000
53604,'2 ',     1.700,    -0.730,    -0.730,    -0.730,1.05000,    0,     4.800,   0.00000,   0.20000,   0.00000,   0.20000,1.00000,1,  100.0,     4.800,     0.000,   4,1.0000
54801,'1 ',     0.000,     0.000,     1.000,    -1.000,1.05000,    0,    10.000,   0.00000,   0.13000,   0.00000,   0.10000,1.00000,0,    1.0,     0.000,     0.000,   5,1.0000
55004,'1 ',     4.100,    -1.800,    -1.800,    -1.800,1.05000,    0,    11.800,   0.00000,   0.20000,   0.00000,   0.20000,1.00000,1,  100.0,    11.800,     0.000,   4,1.0000
3522,'6 ',   167.000,   -14.000,    14.000,   -14.000,1.01500,0,   250.000,   0.00178,   0.17000,   0.00000,   0.00000,1.00000,1,   92.0,   200.000,    20.000,   6,1.0000
0 / END OF GENERATOR DATA, BEGIN BRANCH DATA
   11, 42404,'1 ',   0.00360,   0.00391,   0.00207, 9999.00, 9999.00,10998.90,  0.00000,  0.00000,  0.00000,  0.00000,1,   1.00,   2,1.0000
   12,-25404,'1 ',   0.00534,   0.00795,   0.00407, 9999.00, 9999.00,10998.90,  0.00000,  0.00000,  0.00000,  0.00000,1,   1.40,   1,1.0000
   12,-25404,'3 ',   0.00594,   0.00866,   0.00435, 9999.00, 9999.00,10998.90,  0.00000,  0.00000,  0.00000,  0.00000,1,   0.00,   1,1.0000
   12, 46504,'1 ',   0.02132,   0.02114,   0.00329, 9999.00, 9999.00,10998.90,  0.00000,  0.00000,  0.00000,  0.00000,1,   5.14,   1,1.0000
   12, 46504,'2 ',   0.01937,   0.01703,   0.00256, 9999.00, 9999.00,10998.90,  0.00000,  0.00000,  0.00000,  0.00000,1,   3.96,   1,1.0000
 1021,  2121,'1 ',   0.02830,   0.06260,   0.00590,   72.00,   72.00,   79.20,  0.00000,  0.00000,  0.00000,  0.00000,1,  18.20,   1,1.0000
 1021,  2361,'1 ',   0.05100,   0.11280,   0.01050,  107.00,  107.00,  117.70,  0.00000,  0.00000,  0.00000,  0.00000,1,  32.80,   1,1.0000
 1021,  3281,'1 ',   0.01480,   0.03270,   0.00310,  107.00,  107.00,  117.70,  0.00000,  0.00000,  0.00000,  0.00000,1,   9.50,   1,1.0000
 1021,  3541,'1 ',   0.01390,   0.03810,   0.01200,  107.00,  107.00,  138.60,  0.00000,  0.00000,  0.00000,  0.00000,1,  11.70,   1,1.0000
 1041,  5481,'1 ',   0.00490,   0.01070,   0.00100,  107.00,  107.00,  117.70,  0.00000,  0.00000,  0.00000,  0.00000,1,   3.10,   1,1.0000
 1042,  3202,'1 ',   0.00300,   0.02220,   0.03350,  431.00,  431.00,  474.10,  0.00000,  0.00000,  0.00000,  0.00000,1,  25.60,   1,1.0000
 1042,  3202,'2 ',   0.00300,   0.02220,   0.03350,  431.00,  431.00,  474.10,  0.00000,  0.00000,  0.00000,  0.00000,1,  25.60,   1,1.0000
 1061, 10619,'1 ',   0.00050,   0.00120,   0.00010,   34.00,   34.00,   62.70,  0.00000,  0.00000,  0.00000,  0.00000,1,   0.30,   1,1.0000
 1081,  3281,'1 ',   0.00390,   0.01240,   0.00390,   68.00,  112.00,  121.00,  0.00000,  0.00000,  0.00000,  0.00000,1,   3.80,   1,1.0000
 1101,  2161,'1 ',   0.00310,   0.00690,   0.00060,   45.00,  107.00,  117.70,  0.00000,  0.00000,  0.00000,  0.00000,1,   2.00,   1,1.0000
 1121,  1301,'1 ',   0.01260,   0.08920,   0.00810,  137.00,  137.00,  180.40,  0.00000,  0.00000,  0.00000,  0.00000,1,  25.00,   1,1.0000
 1121,  1841,'1 ',   0.06420,   0.14370,   0.01340,  107.00,  107.00,  117.70,  0.00000,  0.00000,  0.00000,  0.00000,1,  41.76,   1,1.0000
 1121,  4901,'1 ',   0.00350,   0.00770,   0.00080,   34.00,   34.00,   37.40,  0.00000,  0.00000,  0.00000,  0.00000,1,   2.20,   1,1.0000
 1121,  4911,'2 ',   0.00370,   0.00830,   0.00080,   34.00,   34.00,   37.40,  0.00000,  0.00000,  0.00000,  0.00000,1,   2.40,   1,1.0000
 1122,  1742,'1 ',   0.00620,   0.04620,   0.06970,  431.00,  431.00,  474.10,  0.00000,  0.00000,  0.00000,  0.00000,1,  53.30,   1,1.0000
 1122,  2742,'1 ',   0.01020,   0.07610,   0.11480,  275.00,  431.00,  569.80,  0.00000,  0.00000,  0.00000,  0.00000,1,  87.81,   1,1.0000
 1141,  3501,'1 ',   0.05400,   0.12280,   0.01160,   68.00,   93.00,  102.30,  0.00000,  0.00000,  0.00000,  0.00000,1,  35.80,   1,1.0000
 1141,  4941,'1 ',   0.02250,   0.07210,   0.00740,   93.00,   93.00,  144.10,  0.00000,  0.00000,  0.00000,  0.00000,1,  21.60,   1,1.0000
 1141, 11461,'1 ',   0.00000,   0.00010,   0.00000,  107.00,  107.00,  138.60,  0.00000,  0.00000,  0.00000,  0.00000,1,   0.00,   1,1.0000
 1161,  1781,'1 ',   0.00100,   0.00210,   0.00120,   51.00,   96.00,  138.60,  0.00000,  0.00000,  0.00000,  0.00000,1,   0.67,   1,1.0000
 1161,  1791,'2 ',   0.00100,   0.00210,   0.00120,   51.00,   96.00,  138.60,  0.00000,  0.00000,  0.00000,  0.00000,1,   0.67,   1,1.0000
 1161,  3901,'1 ',   0.02440,   0.09080,   0.00950,  107.00,  107.00,  138.60,  0.00000,  0.00000,  0.00000,  0.00000,1,  27.50,   1,1.0000
 1161,  5141,'1 ',   0.02140,   0.11040,   0.01200,  152.00,  152.00,  152.00,  0.00000,  0.00000,  0.00000,  0.00000,1,  34.20,   1,1.0000
 1181,  1861,'1 ',   0.06440,   0.14240,   0.01330,  107.00,  107.00,  138.60,  0.00000,  0.00000,  0.00000,  0.00000,1,  41.40,   1,1.0000
 1181,  2821,'1 ',   0.03650,   0.10300,   0.01030,  107.00,  107.00,  138.60,  0.00000,  0.00000,  0.00000,  0.00000,1,  30.60,   1,1.0000
 1181,  4221,'1 ',   0.08030,   0.22310,   0.02210,   69.00,   69.00,  113.30,  0.00000,  0.00000,  0.00000,  0.00000,1,  66.20,   1,1.0000
 1181,  4961,'1 ',   0.02920,   0.06450,   0.00600,   86.00,   86.00,  122.10,  0.00000,  0.00000,  0.00000,  0.00000,1,  18.58,   1,1.0000
 1201,  2561,'1 ',   0.00480,   0.01480,   0.05910,  140.00,  140.00,  252.00,  0.00000,  0.00000,  0.00000,  0.00000,1,   9.30,   2,1.0000
 1201,  3781,'1 ',   0.00250,   0.00780,   0.03120,  140.00,  140.00,  252.00,  0.00000,  0.00000,  0.00000,  0.00000,1,   4.90,   2,1.0000
 1281,  2221,'1 ',   0.00350,   0.00760,   0.00080,  107.00,  107.00,  138.60,  0.00000,  0.00000,  0.00000,  0.00000,1,  27.40,   2,1.0000
 1301,  1741,'1 ',   0.01590,   0.11540,   0.01040,  137.00,  137.00,  180.40,  0.00000,  0.00000,  0.00000,  0.00000,1,  32.30,   2,1.0000
 1321, 13219,'1 ',   0.00080,   0.00170,   0.00010,  107.00,  107.00,  117.70,  0.00000,  0.00000,  0.00000,  0.00000,1,   0.50,   1,1.0000
 1341,  1701,'1 ',   0.05330,   0.11780,   0.01100,  107.00,  107.00,  138.60,  0.00000,  0.00000,  0.00000,  0.00000,1,  34.20,   1,1.0000
 1361,  2001,'1 ',   0.03390,   0.07500,   0.00700,  107.00,  107.00,  138.60,  0.00000,  0.00000,  0.00000,  0.00000,1,  21.80,   1,1.0000
 1361,  2161,'1 ',   0.01760,   0.03890,   0.00370,  107.00,  107.00,  138.60,  0.00000,  0.00000,  0.00000,  0.00000,1,  11.30,   1,1.0000
 1381,  2931,'1 ',   0.00480,   0.01510,   0.00160,   68.00,   93.00,  138.60,  0.00000,  0.00000,  0.00000,  0.00000,1,   4.50,   1,1.0000
 1381,  4721,'1 ',   0.00270,   0.00590,   0.00060,   68.00,   72.00,   79.20,  0.00000,  0.00000,  0.00000,  0.00000,1,   1.70,   1,1.0000
 1381,  4721,'2 ',   0.00210,   0.00610,   0.00070,   68.00,  107.00,  138.60,  0.00000,  0.00000,  0.00000,  0.00000,1,   1.80,   1,1.0000
 1401,  1661,'1 ',   0.05780,   0.12790,   0.01190,   72.00,   72.00,  113.30,  0.00000,  0.00000,  0.00000,  0.00000,1,  37.20,   1,1.0000
 1401,  4041,'1 ',   0.04200,   0.09290,   0.00870,  107.00,  107.00,  138.60,  0.00000,  0.00000,  0.00000,  0.00000,1,  27.00,   1,1.0000
 1401, 14061,'1 ',   0.00000,   0.00100,   0.00000,  107.00,  107.00,  138.60,  0.00000,  0.00000,  0.00000,  0.00000,1,   0.00,   1,1.0000
 1421,  1741,'1 ',   0.00260,   0.00520,   0.11850,  119.00,  119.00,  130.00,  0.00000,  0.00000,  0.00000,  0.00000,0,   6.70,   2,1.0000
 1421,  4651,'1 ',   0.00300,   0.00600,   0.13620,  119.00,  119.00,  130.00,  0.00000,  0.00000,  0.00000,  0.00000,1,   7.70,   2,1.0000
 1441,  1501,'1 ',   0.00400,   0.00900,   0.00090,   68.00,  107.00,  117.70,  0.00000,  0.00000,  0.00000,  0.00000,1,   2.60,   1,1.0000
 1441,  1511,'2 ',   0.00390,   0.00860,   0.00080,   68.00,  107.00,  117.70,  0.00000,  0.00000,  0.00000,  0.00000,1,   2.50,   1,1.0000
 1441,  2221,'1 ',   0.04020,   0.08900,   0.00830,  107.00,  107.00,  117.70,  0.00000,  0.00000,  0.00000,  0.00000,1,  25.90,   1,1.0000
 1441,  4721,'1 ',   0.04110,   0.09080,   0.00850,  107.00,  107.00,  117.70,  0.00000,  0.00000,  0.00000,  0.00000,1,  26.40,   1,1.0000
 1441, 14461,'1 ',   0.00000,   0.00010,   0.00000,  107.00,  107.00,  138.60,  0.00000,  0.00000,  0.00000,  0.00000,1,   0.00,   1,1.0000
 1461, 14619,'1 ',   0.00050,   0.00100,   0.00010,  107.00,  107.00,  117.70,  0.00000,  0.00000,  0.00000,  0.00000,1,   0.30,   1,1.0000
 1481,  2001,'1 ',   0.01800,   0.04030,   0.00370,   90.00,   90.00,  104.50,  0.00000,  0.00000,  0.00000,  0.00000,1,  11.55,   1,1.0000
 1481,  3401,'1 ',   0.00420,   0.00930,   0.00090,  107.00,  107.00,  138.60,  0.00000,  0.00000,  0.00000,  0.00000,1,   2.70,   1,1.0000
 1581,  2561,'1 ',   0.00530,   0.01670,   0.00180,   93.00,   93.00,  144.10,  0.00000,  0.00000,  0.00000,  0.00000,1,   5.00,   1,1.0000
 1581,  5521,'1 ',   0.00240,   0.00750,   0.02990,  140.00,  140.00,  252.00,  0.00000,  0.00000,  0.00000,  0.00000,1,   4.70,   2,1.0000
 1601,  3301,'1 ',   0.06690,   0.14790,   0.01380,  107.00,  107.00,  138.60,  0.00000,  0.00000,  0.00000,  0.00000,1,  43.00,   1,1.0000
 1601,  3881,'1 ',   0.01560,   0.03440,   0.00320,  107.00,  107.00,  117.70,  0.00000,  0.00000,  0.00000,  0.00000,1,  10.00,   1,1.0000
 1602, -3202,'1 ',   0.00530,   0.03900,   0.05890,  431.00,  431.00,  474.10,  0.00000,  0.00000,  0.00000,  0.00000,1,  45.00,   1,1.0000
 1602,  5142,'1 ',   0.01130,   0.08430,   0.12720,  431.00,  431.00,  474.10,  0.00000,  0.00000,  0.00000,  0.00000,1,  97.30,   1,1.0000
 1621,  3061,'1 ',   0.01060,   0.02340,   0.00220,  107.00,  107.00,  138.60,  0.00000,  0.00000,  0.00000,  0.00000,1,   6.80,   1,1.0000
 1621,  3221,'1 ',   0.01790,   0.03960,   0.00370,  107.00,  107.00,  138.60,  0.00000,  0.00000,  0.00000,  0.00000,1,  11.50,   1,1.0000
 1641,  1821,'1 ',   0.03580,   0.07910,   0.00740,  107.00,  107.00,  117.70,  0.00000,  0.00000,  0.00000,  0.00000,1,  22.90,   1,1.0000
...